  
       XFOIL         Version 6.99
  
 Calculated polar for: NACA 2009                                       
  
 1 1 Reynolds number fixed          Mach number fixed         
  
 xtrf =   1.000 (top)        1.000 (bottom)  
 Mach =   0.000     Re =     0.700 e 6     Ncrit =  12.000
  
   alpha    CL        CD       CDp       CM     Top_Xtr  Bot_Xtr
  ------ -------- --------- --------- -------- -------- --------
   2.521   0.5000   0.00714   0.00216  -0.0201   0.3360   1.0000
