  
       XFOIL         Version 6.99
  
 Calculated polar for: NACA 2009                                       
  
 1 1 Reynolds number fixed          Mach number fixed         
  
 xtrf =   0.600 (top)        0.600 (bottom)  
 Mach =   0.000     Re =     0.700 e 6     Ncrit =  12.000
  
   alpha    CL        CD       CDp       CM     Top_Xtr  Bot_Xtr
  ------ -------- --------- --------- -------- -------- --------
  -2.000  -0.0356   0.00643   0.00096  -0.0146   0.6000   0.6000
  -1.000   0.0798   0.00643   0.00091  -0.0150   0.6000   0.6000
  -0.000   0.1951   0.00646   0.00100  -0.0154   0.6000   0.6000
   1.000   0.3104   0.00655   0.00124  -0.0159   0.6000   0.6000
   2.000   0.4197   0.00726   0.00162  -0.0154   0.4783   0.6000
   3.000   0.5236   0.00885   0.00231  -0.0145   0.2412   0.6000
   3.999   0.6250   0.01106   0.00368  -0.0134   0.0615   0.6000
