  
       XFOIL         Version 6.99
  
 Calculated polar for: NACA 2009                                       
  
 1 1 Reynolds number fixed          Mach number fixed         
  
 xtrf =   0.400 (top)        0.400 (bottom)  
 Mach =   0.000     Re =     0.700 e 6     Ncrit =  12.000
  
   alpha    CL        CD       CDp       CM     Top_Xtr  Bot_Xtr
  ------ -------- --------- --------- -------- -------- --------
  -2.000  -0.0359   0.00805   0.00100  -0.0146   0.4000   0.4000
  -1.000   0.0782   0.00805   0.00096  -0.0147   0.4000   0.4000
  -0.000   0.1922   0.00808   0.00104  -0.0148   0.4000   0.4000
   1.000   0.3060   0.00816   0.00126  -0.0150   0.4000   0.4000
   2.000   0.4196   0.00829   0.00163  -0.0152   0.4000   0.4000
   3.000   0.5261   0.00947   0.00231  -0.0147   0.2384   0.4000
   3.999   0.6269   0.01166   0.00370  -0.0135   0.0604   0.4000
