  
       XFOIL         Version 6.99
  
 Calculated polar for: NACA 2009                                       
  
 1 1 Reynolds number fixed          Mach number fixed         
  
 xtrf =   0.200 (top)        0.200 (bottom)  
 Mach =   0.000     Re =     0.700 e 6     Ncrit =  12.000
  
   alpha    CL        CD       CDp       CM     Top_Xtr  Bot_Xtr
  ------ -------- --------- --------- -------- -------- --------
  -2.000  -0.0360   0.00971   0.00118  -0.0145   0.2000   0.2000
  -1.000   0.0768   0.00971   0.00114  -0.0144   0.2000   0.2000
  -0.000   0.1895   0.00976   0.00124  -0.0144   0.2000   0.2000
   1.000   0.3020   0.00986   0.00145  -0.0145   0.2000   0.2000
   2.000   0.4142   0.01002   0.00181  -0.0145   0.2000   0.2000
   3.000   0.5260   0.01025   0.00236  -0.0145   0.2000   0.2000
   3.999   0.6279   0.01217   0.00373  -0.0134   0.0594   0.2000
   4.999   0.7300   0.01402   0.00576  -0.0119   0.0351   0.2000
