  
       XFOIL         Version 6.99
  
 Calculated polar for: NACA 2009                                       
  
 1 1 Reynolds number fixed          Mach number fixed         
  
 xtrf =   0.800 (top)        0.800 (bottom)  
 Mach =   0.000     Re =     0.700 e 6     Ncrit =  12.000
  
   alpha    CL        CD       CDp       CM     Top_Xtr  Bot_Xtr
  ------ -------- --------- --------- -------- -------- --------
  -2.000  -0.0356   0.00494   0.00115  -0.0145   0.8000   0.8000
  -1.000   0.0816   0.00494   0.00110  -0.0155   0.8000   0.8000
  -0.000   0.1988   0.00500   0.00122  -0.0165   0.8000   0.8000
   1.000   0.3071   0.00558   0.00133  -0.0152   0.6690   0.8000
   2.000   0.4139   0.00657   0.00166  -0.0142   0.4828   0.8000
   3.000   0.5184   0.00816   0.00234  -0.0134   0.2469   0.8000
   3.999   0.6203   0.01038   0.00368  -0.0125   0.0632   0.8000
